LAMMPS (29 Aug 2024)
units           metal
dimension       3
boundary        p p p   # Start with periodic in all directions
atom_style      atomic
read_data       "HfNbTaTiZr.data"
Reading data file ...
  orthogonal box = (0 0 0) to (69 69 69)
  reading atoms ...
  16000 atoms

# -------------------- INTERATOMIC POTENTIAL -------------------------
pair_style      meam
pair_coeff      * * library_HfNbTaTiZr.meam Hf Nb Ta Ti Zr HfNbTaTiZr.meam Hf Nb Ta Ti Zr

# -------------------- MINIMIZATION -------------------------
reset_timestep  0
timestep        0.005

# Energy minimization
minimize        1e-6 1e-8 10000 100000

CITE-CITE-CITE-CITE-CITE-CITE-CITE-CITE-CITE-CITE-CITE-CITE-CITE

Your simulation uses code contributions which should be cited:

- Type Label Framework: https://doi.org/10.1021/acs.jpcb.3c08419

@Article{Gissinger24,
 author = {Jacob R. Gissinger, Ilia Nikiforov, Yaser Afshar, Brendon Waters, Moon-ki Choi, Daniel S. Karls, Alexander Stukowski, Wonpil Im, Hendrik Heinz, Axel Kohlmeyer, and Ellad B. Tadmor},
 title = {Type Label Framework for Bonded Force Fields in LAMMPS},
 journal = {J. Phys. Chem. B},
 year =    2024,
 volume =  128,
 number =  13,
 pages =   {3282â€“-3297}
}

CITE-CITE-CITE-CITE-CITE-CITE-CITE-CITE-CITE-CITE-CITE-CITE-CITE

Step          Temp          E_pair         E_mol          TotEng         Press
0   0             -107611.62      0             -107611.62     -31167.334
Loop time of 2.14382 on 1 procs for 17 steps with 16000 atoms

Minimization stats:
  Stopping criterion = energy tolerance
  Energy initial, next-to-last, final =
  Force two-norm initial, final = 75.730634 1.7896019
  Force max component initial, final = 1.7491805 0.37017783
  Final line search alpha, max atom move = 0.43606703 0.16142235
  Iterations, force evaluations = 17 32

dump            min all custom 10000 HEA_min.txt id x y z
dump_modify     min pbc yes sort id

# -------------------- INITIALIZATION -------------------------
velocity        all create 1500.0 12345 mom yes rot no

# -------------------- EQUILIBRATION: NVT -------------------------
reset_timestep  0
fix             nvt_eq all nvt temp 1500.0 1500.0 0.1
thermo          200
run             2000
Step          Temp          E_pair         E_mol          TotEng         Press
0   1500          -107952.72      0             -104850.67     -20806.051
Averages over the last 6 of 11 rows, steps 1000 to 2000:
Temp E_pair E_mol TotEng Press
1491.97 -104154 0 -101069 14831.7
Loop time of 163.734 on 1 procs for 2000 steps with 16000 atoms

unfix           nvt_eq

# -------------------- PRESSURE RELAXATION: NPT -------------------------
# Relax pressure from 10,000 Pa (~0.1 bar) to 0 Pa
fix             npt_relax all npt temp 1500.0 1500.0 0.1 iso 0.0001 0.0 1.0
thermo          200
run             2000
Step          Temp          E_pair         E_mol          TotEng         Press          Volume
2000   1504.7919     -104159.85      0             -101047.89      15000.103      328509
Averages over the last 6 of 11 rows, steps 3000 to 4000:
Temp E_pair E_mol TotEng Press Volume
1500.37 -104013 0 -100910 -132.436 334123
Loop time of 163.479 on 1 procs for 2000 steps with 16000 atoms

unfix           npt_relax

# -------------------- CHANGE BOUNDARY CONDITIONS -------------------------
# Switch x,y to shrink-wrap
change_box      all boundary p p s remap
Changing box ...

# -------------------- RELAX AGAIN AT 0 Pa -------------------------
fix             npt_zero all npt temp 1500.0 1500.0 0.1 x 0.0 0.0 1.0 y 0.0 0.0 1.0
thermo          200
run             2000
Step          Temp          E_pair         E_mol          TotEng         Press          Volume
4000   1507.3954     -102593.67      0             -99476.325     -2859.5102      333885.94
Averages over the last 6 of 11 rows, steps 5000 to 6000:
Temp E_pair E_mol TotEng Press Volume
1505.19 -102737 0 -99624.2 -446.957 349259
Loop time of 158.244 on 1 procs for 2000 steps with 16000 atoms

unfix           npt_zero

# -------------------- FINAL NVT: METASTABLE STRUCTURE -------------------------
fix             final_nvt all nvt temp 1500.0 1500.0 0.1
thermo          200
run             500
Step          Temp          E_pair         E_mol          TotEng         Press          Volume
6000   1506.1276     -102817.04      0             -99702.317     -926.13676      348804.07
Loop time of 39.8144 on 1 procs for 500 steps with 16000 atoms

unfix           final_nvt

# -------------------- FINAL OUTPUT -------------------------
print "All done!"
All done!
