LAMMPS (29 Aug 2024)
units           metal
dimension       3
boundary        p p p   # Start with periodic in all directions
atom_style      atomic
read_data       "HfNbTaTiZr.data"
Reading data file ...
  orthogonal box = (0 0 0) to (68 68 68)
  reading atoms ...
  16000 atoms

# -------------------- INTERATOMIC POTENTIAL -------------------------
pair_style      meam
pair_coeff      * * library_HfNbTaTiZr.meam Hf Nb Ta Ti Zr HfNbTaTiZr.meam Hf Nb Ta Ti Zr

# -------------------- MINIMIZATION -------------------------
reset_timestep  0
timestep        0.005

# Energy minimization
minimize        1e-6 1e-8 10000 100000

CITE-CITE-CITE-CITE-CITE-CITE-CITE-CITE-CITE-CITE-CITE-CITE-CITE

Your simulation uses code contributions which should be cited:

- Type Label Framework: https://doi.org/10.1021/acs.jpcb.3c08419

@Article{Gissinger24,
 author = {Jacob R. Gissinger, Ilia Nikiforov, Yaser Afshar, Brendon Waters, Moon-ki Choi, Daniel S. Karls, Alexander Stukowski, Wonpil Im, Hendrik Heinz, Axel Kohlmeyer, and Ellad B. Tadmor},
 title = {Type Label Framework for Bonded Force Fields in LAMMPS},
 journal = {J. Phys. Chem. B},
 year =    2024,
 volume =  128,
 number =  13,
 pages =   {3282â€“-3297}
}

CITE-CITE-CITE-CITE-CITE-CITE-CITE-CITE-CITE-CITE-CITE-CITE-CITE

Step          Temp          E_pair         E_mol          TotEng         Press
0   0             -107681.17      0             -107681.17      17491.491
Loop time of 1.91641 on 1 procs for 15 steps with 16000 atoms

Minimization stats:
  Stopping criterion = energy tolerance
  Energy initial, next-to-last, final =
  Force two-norm initial, final = 79.525962 2.2354175
  Force max component initial, final = 1.7862 0.59065702
  Final line search alpha, max atom move = 0.38637072 0.22821258
  Iterations, force evaluations = 15 28

dump            min all custom 10000 HEA_min.txt id x y z
dump_modify     min pbc yes sort id

# -------------------- INITIALIZATION -------------------------
velocity        all create 1500.0 12345 mom yes rot no

# -------------------- EQUILIBRATION: NVT -------------------------
reset_timestep  0
fix             nvt_eq all nvt temp 1500.0 1500.0 0.1
thermo          200
run             2000
Step          Temp          E_pair         E_mol          TotEng         Press
0   1500          -108022.39      0             -104920.34      27197.662
Averages over the last 6 of 11 rows, steps 1000 to 2000:
Temp E_pair E_mol TotEng Press
1496.33 -104249 0 -101154 60430.1
Loop time of 168.801 on 1 procs for 2000 steps with 16000 atoms

unfix           nvt_eq

# -------------------- PRESSURE RELAXATION: NPT -------------------------
# Relax pressure from 10,000 Pa (~0.1 bar) to 0 Pa
fix             npt_relax all npt temp 1500.0 1500.0 0.1 iso 0.0001 0.0 1.0
thermo          200
run             2000
Step          Temp          E_pair         E_mol          TotEng         Press          Volume
2000   1481.8421     -104228.14      0             -101163.64      60780.379      314432
Averages over the last 6 of 11 rows, steps 3000 to 4000:
Temp E_pair E_mol TotEng Press Volume
1500.98 -104025 0 -100921 148.519 333895
Loop time of 164.364 on 1 procs for 2000 steps with 16000 atoms

unfix           npt_relax

# -------------------- CHANGE BOUNDARY CONDITIONS -------------------------
# Switch x,y to shrink-wrap
change_box      all boundary p p s remap
Changing box ...

# -------------------- RELAX AGAIN AT 0 Pa -------------------------
fix             npt_zero all npt temp 1500.0 1500.0 0.1 x 0.0 0.0 1.0 y 0.0 0.0 1.0
thermo          200
run             2000
Step          Temp          E_pair         E_mol          TotEng         Press          Volume
4000   1494.324      -102586.26      0             -99495.95      -3522.6665      334047.75
Averages over the last 6 of 11 rows, steps 5000 to 6000:
Temp E_pair E_mol TotEng Press Volume
1503.13 -102722 0 -99613.2 -448.702 346793
Loop time of 158.63 on 1 procs for 2000 steps with 16000 atoms

unfix           npt_zero

# -------------------- FINAL NVT: METASTABLE STRUCTURE -------------------------
fix             final_nvt all nvt temp 1500.0 1500.0 0.1
thermo          200
run             500
Step          Temp          E_pair         E_mol          TotEng         Press          Volume
6000   1515.4547     -102780.45      0             -99646.439     -1537.4872      345872.56
Loop time of 39.6029 on 1 procs for 500 steps with 16000 atoms

unfix           final_nvt

# -------------------- FINAL OUTPUT -------------------------
print "All done!"
All done!
