LAMMPS (29 Aug 2024)
units           metal
dimension       3
boundary        p p p   # Start with periodic in all directions
atom_style      atomic
read_data       "HfNbTaTiZr.data"
Reading data file ...
  orthogonal box = (0 0 0) to (66.2 66.2 66.2)
  reading atoms ...
  16000 atoms

# -------------------- INTERATOMIC POTENTIAL -------------------------
pair_style      meam
pair_coeff      * * library_HfNbTaTiZr.meam Hf Nb Ta Ti Zr HfNbTaTiZr.meam Hf Nb Ta Ti Zr

# -------------------- MINIMIZATION -------------------------
reset_timestep  0
timestep        0.005

# Energy minimization
minimize        1e-6 1e-8 10000 100000

CITE-CITE-CITE-CITE-CITE-CITE-CITE-CITE-CITE-CITE-CITE-CITE-CITE

Your simulation uses code contributions which should be cited:

- Type Label Framework: https://doi.org/10.1021/acs.jpcb.3c08419

@Article{Gissinger24,
 author = {Jacob R. Gissinger, Ilia Nikiforov, Yaser Afshar, Brendon Waters, Moon-ki Choi, Daniel S. Karls, Alexander Stukowski, Wonpil Im, Hendrik Heinz, Axel Kohlmeyer, and Ellad B. Tadmor},
 title = {Type Label Framework for Bonded Force Fields in LAMMPS},
 journal = {J. Phys. Chem. B},
 year =    2024,
 volume =  128,
 number =  13,
 pages =   {3282â€“-3297}
}

CITE-CITE-CITE-CITE-CITE-CITE-CITE-CITE-CITE-CITE-CITE-CITE-CITE

Step          Temp          E_pair         E_mol          TotEng         Press
0   0             -106568.8       0             -106568.8       137727.4
Loop time of 2.10472 on 1 procs for 16 steps with 16000 atoms

Minimization stats:
  Stopping criterion = energy tolerance
  Energy initial, next-to-last, final =
  Force two-norm initial, final = 92.047609 1.5070132
  Force max component initial, final = 1.9056728 0.25609522
  Final line search alpha, max atom move = 0.32775602 0.083936749
  Iterations, force evaluations = 16 29

dump            min all custom 10000 HEA_min.txt id x y z
dump_modify     min pbc yes sort id

# -------------------- INITIALIZATION -------------------------
velocity        all create 1500.0 12345 mom yes rot no

# -------------------- EQUILIBRATION: NVT -------------------------
reset_timestep  0
fix             nvt_eq all nvt temp 1500.0 1500.0 0.1
thermo          200
run             2000
Step          Temp          E_pair         E_mol          TotEng         Press
0   1500          -106943.86      0             -103841.81      145551.2
Averages over the last 6 of 11 rows, steps 1000 to 2000:
Temp E_pair E_mol TotEng Press
1503.18 -103299 0 -100191 173428
Loop time of 178.538 on 1 procs for 2000 steps with 16000 atoms

unfix           nvt_eq

# -------------------- PRESSURE RELAXATION: NPT -------------------------
# Relax pressure from 10,000 Pa (~0.1 bar) to 0 Pa
fix             npt_relax all npt temp 1500.0 1500.0 0.1 iso 0.0001 0.0 1.0
thermo          200
run             2000
Step          Temp          E_pair         E_mol          TotEng         Press          Volume
2000   1521.0957     -103316.63      0             -100170.96      173382.79      290117.53
Averages over the last 6 of 11 rows, steps 3000 to 4000:
Temp E_pair E_mol TotEng Press Volume
1496.66 -104038 0 -100942 -573.313 334111
Loop time of 163.953 on 1 procs for 2000 steps with 16000 atoms

unfix           npt_relax

# -------------------- CHANGE BOUNDARY CONDITIONS -------------------------
# Switch x,y to shrink-wrap
change_box      all boundary p p s remap
Changing box ...

# -------------------- RELAX AGAIN AT 0 Pa -------------------------
fix             npt_zero all npt temp 1500.0 1500.0 0.1 x 0.0 0.0 1.0 y 0.0 0.0 1.0
thermo          200
run             2000
Step          Temp          E_pair         E_mol          TotEng         Press          Volume
4000   1497.324      -102557.15      0             -99460.632     -3624.9018      334288.5
Averages over the last 6 of 11 rows, steps 5000 to 6000:
Temp E_pair E_mol TotEng Press Volume
1497.84 -102744 0 -99646.1 -503.116 348801
Loop time of 158.128 on 1 procs for 2000 steps with 16000 atoms

unfix           npt_zero

# -------------------- FINAL NVT: METASTABLE STRUCTURE -------------------------
fix             final_nvt all nvt temp 1500.0 1500.0 0.1
thermo          200
run             500
Step          Temp          E_pair         E_mol          TotEng         Press          Volume
6000   1502.7531     -102820.38      0             -99712.639     -882.95955      349211.71
Loop time of 39.4584 on 1 procs for 500 steps with 16000 atoms

unfix           final_nvt

# -------------------- FINAL OUTPUT -------------------------
print "All done!"
All done!
