LAMMPS (29 Aug 2024)
units           metal
dimension       3
boundary        p p p   # Start with periodic in all directions
atom_style      atomic
read_data       "HfNbTaTiZr.data"
Reading data file ...
  orthogonal box = (0 0 0) to (68.8 68.8 68.8)
  reading atoms ...
  16000 atoms

# -------------------- INTERATOMIC POTENTIAL -------------------------
pair_style      meam
pair_coeff      * * library_HfNbTaTiZr.meam Hf Nb Ta Ti Zr HfNbTaTiZr.meam Hf Nb Ta Ti Zr

# -------------------- MINIMIZATION -------------------------
reset_timestep  0
timestep        0.005

# Energy minimization
minimize        1e-6 1e-8 10000 100000

CITE-CITE-CITE-CITE-CITE-CITE-CITE-CITE-CITE-CITE-CITE-CITE-CITE

Your simulation uses code contributions which should be cited:

- Type Label Framework: https://doi.org/10.1021/acs.jpcb.3c08419

@Article{Gissinger24,
 author = {Jacob R. Gissinger, Ilia Nikiforov, Yaser Afshar, Brendon Waters, Moon-ki Choi, Daniel S. Karls, Alexander Stukowski, Wonpil Im, Hendrik Heinz, Axel Kohlmeyer, and Ellad B. Tadmor},
 title = {Type Label Framework for Bonded Force Fields in LAMMPS},
 journal = {J. Phys. Chem. B},
 year =    2024,
 volume =  128,
 number =  13,
 pages =   {3282â€“-3297}
}

CITE-CITE-CITE-CITE-CITE-CITE-CITE-CITE-CITE-CITE-CITE-CITE-CITE

Step          Temp          E_pair         E_mol          TotEng         Press
0   0             -107664.94      0             -107664.94     -22214.35
Loop time of 1.75833 on 1 procs for 15 steps with 16000 atoms

Minimization stats:
  Stopping criterion = energy tolerance
  Energy initial, next-to-last, final =
  Force two-norm initial, final = 76.875542 2.0105826
  Force max component initial, final = 1.7887707 0.25577179
  Final line search alpha, max atom move = 0.37624433 0.096232689
  Iterations, force evaluations = 15 26

dump            min all custom 10000 HEA_min.txt id x y z
dump_modify     min pbc yes sort id

# -------------------- INITIALIZATION -------------------------
velocity        all create 1500.0 12345 mom yes rot no

# -------------------- EQUILIBRATION: NVT -------------------------
reset_timestep  0
fix             nvt_eq all nvt temp 1500.0 1500.0 0.1
thermo          200
run             2000
Step          Temp          E_pair         E_mol          TotEng         Press
0   1500          -108004.82      0             -104902.77     -11977.571
Averages over the last 6 of 11 rows, steps 1000 to 2000:
Temp E_pair E_mol TotEng Press
1492.47 -104206 0 -101120 23105
Loop time of 163.569 on 1 procs for 2000 steps with 16000 atoms

unfix           nvt_eq

# -------------------- PRESSURE RELAXATION: NPT -------------------------
# Relax pressure from 10,000 Pa (~0.1 bar) to 0 Pa
fix             npt_relax all npt temp 1500.0 1500.0 0.1 iso 0.0001 0.0 1.0
thermo          200
run             2000
Step          Temp          E_pair         E_mol          TotEng         Press          Volume
2000   1481.9862     -104227.98      0             -101163.18      22997.266      325660.67
Averages over the last 6 of 11 rows, steps 3000 to 4000:
Temp E_pair E_mol TotEng Press Volume
1501.44 -104033 0 -100928 -641.15 334136
Loop time of 162.924 on 1 procs for 2000 steps with 16000 atoms

unfix           npt_relax

# -------------------- CHANGE BOUNDARY CONDITIONS -------------------------
# Switch x,y to shrink-wrap
change_box      all boundary p p s remap
Changing box ...

# -------------------- RELAX AGAIN AT 0 Pa -------------------------
fix             npt_zero all npt temp 1500.0 1500.0 0.1 x 0.0 0.0 1.0 y 0.0 0.0 1.0
thermo          200
run             2000
Step          Temp          E_pair         E_mol          TotEng         Press          Volume
4000   1484.347      -102586.45      0             -99516.771     -3964.4471      334310.15
Averages over the last 6 of 11 rows, steps 5000 to 6000:
Temp E_pair E_mol TotEng Press Volume
1489.86 -102741 0 -99660.1 -855.976 346721
Loop time of 157.464 on 1 procs for 2000 steps with 16000 atoms

unfix           npt_zero

# -------------------- FINAL NVT: METASTABLE STRUCTURE -------------------------
fix             final_nvt all nvt temp 1500.0 1500.0 0.1
thermo          200
run             500
Step          Temp          E_pair         E_mol          TotEng         Press          Volume
6000   1476.0174     -102808.86      0             -99756.406     -1261.0821      346671.4
Loop time of 39.4519 on 1 procs for 500 steps with 16000 atoms

unfix           final_nvt

# -------------------- FINAL OUTPUT -------------------------
print "All done!"
All done!
