LAMMPS (29 Aug 2024)
units           metal
dimension       3
boundary        p p p   # Start with periodic in all directions
atom_style      atomic
read_data       "HfNbTaTiZr.data"
Reading data file ...
  orthogonal box = (0 0 0) to (67 67 67)
  reading atoms ...
  16000 atoms

# -------------------- INTERATOMIC POTENTIAL -------------------------
pair_style      meam
pair_coeff      * * library_HfNbTaTiZr.meam Hf Nb Ta Ti Zr HfNbTaTiZr.meam Hf Nb Ta Ti Zr

# -------------------- MINIMIZATION -------------------------
reset_timestep  0
timestep        0.005

# Energy minimization
minimize        1e-6 1e-8 10000 100000

CITE-CITE-CITE-CITE-CITE-CITE-CITE-CITE-CITE-CITE-CITE-CITE-CITE

Your simulation uses code contributions which should be cited:

- Type Label Framework: https://doi.org/10.1021/acs.jpcb.3c08419

@Article{Gissinger24,
 author = {Jacob R. Gissinger, Ilia Nikiforov, Yaser Afshar, Brendon Waters, Moon-ki Choi, Daniel S. Karls, Alexander Stukowski, Wonpil Im, Hendrik Heinz, Axel Kohlmeyer, and Ellad B. Tadmor},
 title = {Type Label Framework for Bonded Force Fields in LAMMPS},
 journal = {J. Phys. Chem. B},
 year =    2024,
 volume =  128,
 number =  13,
 pages =   {3282â€“-3297}
}

CITE-CITE-CITE-CITE-CITE-CITE-CITE-CITE-CITE-CITE-CITE-CITE-CITE

Step          Temp          E_pair         E_mol          TotEng         Press
0   0             -107285         0             -107285         78713.258
Loop time of 1.83324 on 1 procs for 14 steps with 16000 atoms

Minimization stats:
  Stopping criterion = energy tolerance
  Energy initial, next-to-last, final =
  Force two-norm initial, final = 85.975462 1.6925066
  Force max component initial, final = 1.9557904 0.14837804
  Final line search alpha, max atom move = 0.51552567 0.076492691
  Iterations, force evaluations = 14 27

dump            min all custom 10000 HEA_min.txt id x y z
dump_modify     min pbc yes sort id

# -------------------- INITIALIZATION -------------------------
velocity        all create 1500.0 12345 mom yes rot no

# -------------------- EQUILIBRATION: NVT -------------------------
reset_timestep  0
fix             nvt_eq all nvt temp 1500.0 1500.0 0.1
thermo          200
run             2000
Step          Temp          E_pair         E_mol          TotEng         Press
0   1500          -107640.99      0             -104538.94      87516.707
Averages over the last 6 of 11 rows, steps 1000 to 2000:
Temp E_pair E_mol TotEng Press
1500.84 -103930 0 -100826 117679
Loop time of 173.422 on 1 procs for 2000 steps with 16000 atoms

unfix           nvt_eq

# -------------------- PRESSURE RELAXATION: NPT -------------------------
# Relax pressure from 10,000 Pa (~0.1 bar) to 0 Pa
fix             npt_relax all npt temp 1500.0 1500.0 0.1 iso 0.0001 0.0 1.0
thermo          200
run             2000
Step          Temp          E_pair         E_mol          TotEng         Press          Volume
2000   1496.7676     -103922.86      0             -100827.49      117942.85      300763
Averages over the last 6 of 11 rows, steps 3000 to 4000:
Temp E_pair E_mol TotEng Press Volume
1497.82 -104017 0 -100920 140.707 333878
Loop time of 163.947 on 1 procs for 2000 steps with 16000 atoms

unfix           npt_relax

# -------------------- CHANGE BOUNDARY CONDITIONS -------------------------
# Switch x,y to shrink-wrap
change_box      all boundary p p s remap
Changing box ...

# -------------------- RELAX AGAIN AT 0 Pa -------------------------
fix             npt_zero all npt temp 1500.0 1500.0 0.1 x 0.0 0.0 1.0 y 0.0 0.0 1.0
thermo          200
run             2000
Step          Temp          E_pair         E_mol          TotEng         Press          Volume
4000   1505.7833     -102586.82      0             -99472.807     -2794.3929      333762.88
Averages over the last 6 of 11 rows, steps 5000 to 6000:
Temp E_pair E_mol TotEng Press Volume
1499.84 -102723 0 -99620.8 -436.869 345631
Loop time of 158.054 on 1 procs for 2000 steps with 16000 atoms

unfix           npt_zero

# -------------------- FINAL NVT: METASTABLE STRUCTURE -------------------------
fix             final_nvt all nvt temp 1500.0 1500.0 0.1
thermo          200
run             500
Step          Temp          E_pair         E_mol          TotEng         Press          Volume
6000   1501.4579     -102819.97      0             -99714.903     -1068.7854      349224.86
Loop time of 39.6404 on 1 procs for 500 steps with 16000 atoms

unfix           final_nvt

# -------------------- FINAL OUTPUT -------------------------
print "All done!"
All done!
